<?xml version="1.0" encoding="UTF-8"?>

<!-- generated on 03/12/25 01:13:34 by Eclipse SUMO polyconvert Version 1.3.0
<configuration xmlns:xsi="http://www.w3.org/2001/XMLSchema-instance" xsi:noNamespaceSchemaLocation="http://sumo.dlr.de/xsd/polyconvertConfiguration.xsd">

    <input>
        <net-file value="osm.net.xml"/>
        <osm-files value="osm_bbox.osm.xml"/>
        <osm.keep-full-type value="true"/>
        <type-file value="C:\Program%20Files%20(x86)\Eclipse\Sumo\data\typemap\osmPolyconvert.typ.xml"/>
    </input>

    <output>
        <output-file value="osm.poly.xml"/>
    </output>

    <processing>
        <poi-layer-offset value="5"/>
    </processing>

    <report>
        <verbose value="true"/>
    </report>

</configuration>
-->

<additional xmlns:xsi="http://www.w3.org/2001/XMLSchema-instance" xsi:noNamespaceSchemaLocation="http://sumo.dlr.de/xsd/additional_file.xsd">
    <location netOffset="-644938.20,-2540336.59" convBoundary="0.00,-22.12,5447.09,2884.54" origBoundary="88.413948,22.964607,88.467011,22.990780" projParameter="+proj=utm +zone=45 +ellps=WGS84 +datum=WGS84 +units=m +no_defs"/>

    <poly id="1013841838" type="leisure.park" color="207,245,201" fill="1" layer="-2.00" shape="2966.148021,1616.327111 2967.579632,1618.799500 2968.110373,1621.130148 2968.270193,1623.645397 2967.009375,1627.785550 2965.074179,1629.604716 2961.583279,1630.101915 2954.758527,1624.509144 2954.550186,1622.757487 2954.686474,1620.366958 2956.604105,1618.248634 2960.785576,1616.340821 2963.079827,1615.543944 2966.148021,1616.327111"/>
    <poly id="1015195294" type="landuse.forest" color="140,196,107" fill="1" layer="-3.00" shape="3355.973612,1934.863122 3360.377600,1937.420233 3388.275474,1927.020518 3403.209962,1918.054338 3477.090068,1881.853157 3499.640025,1846.131136 3534.640897,1756.017218 3520.881274,1710.336090 3462.265343,1727.984583 3448.150519,1686.065022 3469.384974,1678.733486 3464.479445,1663.614055 3376.996257,1693.214288 3399.324931,1767.250395 3353.066335,1781.555177 3348.740674,1772.088985 3251.227374,1793.739902 3032.665082,1822.062121 3029.933495,1811.039283 2960.584076,1827.631750 2949.514304,1797.059770 2585.025711,1920.370776 2599.296652,1946.588767 2821.898978,1892.864361 3060.592790,1873.219558 3302.969108,1864.931904 3310.508104,1868.771205 3318.654766,1875.451315 3320.850604,1877.355455 3355.973612,1934.863122"/>
    <poly id="1017764575" type="leisure.park" color="207,245,201" fill="0" layer="-2.00" shape="3452.531947,1159.818439 3388.329845,1205.151321 3341.400863,1222.804895 3247.630269,1289.872062 3134.139772,1092.754030"/>
    <poly id="1026255360" type="man_made.wastewater_plant" color="255,230,230" fill="1" layer="-1.00" shape="725.920796,769.609847 772.300823,1205.396952 133.695028,1265.941731 134.127017,764.988488 725.920796,769.609847"/>
    <poly id="1071931379" type="amenity.fountain" color="237,199,199" fill="1" layer="-1.00" shape="2058.196011,1122.266102 2056.425208,1125.105742 2055.737037,1128.376750 2056.186546,1131.692095 2057.736620,1134.652771 2060.205962,1136.924805 2063.023800,1138.159342 2066.096672,1138.477278 2069.117552,1137.820246 2071.778006,1136.273818 2073.820429,1133.968358 2075.047538,1131.156628 2075.333709,1128.103160 2074.655516,1125.106708 2073.071441,1122.477901 2070.508745,1120.315687 2067.362182,1119.144377 2063.999645,1119.089373 2060.820758,1120.176726 2058.196011,1122.266102"/>
    <poly id="1071931467" type="leisure.garden" color="207,245,201" fill="1" layer="-2.00" shape="2104.685954,1161.964649 2116.236522,1164.558001 2128.020089,1163.244721 2138.712606,1158.166892 2147.139691,1149.888847 2152.369761,1139.309495 2153.827243,1127.619135 2151.345893,1116.089585 2145.210355,1106.019220 2136.086775,1098.488681 2124.981801,1094.360467 2113.141999,1094.078631 2101.848810,1097.666770 2093.620038,1103.488478 2087.360092,1111.389089 2083.577827,1120.709166 2082.588056,1130.709867 2084.460081,1140.594582 2089.037757,1149.553425 2095.969179,1156.874262 2104.685954,1161.964649"/>
    <poly id="1126169360" type="natural.water" color="181,209,209" fill="1" layer="-4.00" shape="672.467001,615.183954 662.504751,536.333901 702.424968,531.792581 712.671766,609.825999 672.467001,615.183954"/>
    <poly id="1126171794" type="landuse.recreation_ground" color="194,194,130" fill="1" layer="-3.00" shape="657.221809,1977.291915 626.759881,1856.684923 701.414793,1843.466339 726.345829,1938.041819 657.221809,1977.291915"/>
    <poly id="1242012001" type="leisure.track" color="207,245,201" fill="1" layer="-2.00" shape="2949.185525,1988.970902 3026.254084,1981.800392 3037.560638,1978.899658 3045.861672,1974.064717 3054.751820,1964.584717 3059.827206,1952.055193 3058.604169,1936.728535 3056.217384,1927.137560 3047.515602,1917.473370 3037.400072,1910.818334 3025.595878,1909.063315 3013.221962,1908.941574 2940.000185,1915.873163 2928.427061,1918.771351 2920.693026,1922.249893 2910.695753,1931.719083 2904.805790,1943.686969 2903.614694,1953.253812 2904.351562,1961.732262 2906.767936,1968.322587 2913.005069,1976.312513 2919.548079,1982.389739 2927.757726,1986.844482 2938.188133,1988.585919 2949.185525,1988.970902"/>
    <poly id="1242012001#1" type="sport.running;athletics" color="79,230,125" fill="1" layer="-2.00" shape="2949.185525,1988.970902 3026.254084,1981.800392 3037.560638,1978.899658 3045.861672,1974.064717 3054.751820,1964.584717 3059.827206,1952.055193 3058.604169,1936.728535 3056.217384,1927.137560 3047.515602,1917.473370 3037.400072,1910.818334 3025.595878,1909.063315 3013.221962,1908.941574 2940.000185,1915.873163 2928.427061,1918.771351 2920.693026,1922.249893 2910.695753,1931.719083 2904.805790,1943.686969 2903.614694,1953.253812 2904.351562,1961.732262 2906.767936,1968.322587 2913.005069,1976.312513 2919.548079,1982.389739 2927.757726,1986.844482 2938.188133,1988.585919 2949.185525,1988.970902"/>
    <poly id="1242131352" type="amenity.university" color="237,199,199" fill="1" layer="-1.00" shape="3131.777092,2819.673634 3099.181257,2684.754314 3065.598179,2520.912530 3061.507158,2489.700393 3049.706509,2459.508648 3035.669493,2432.572658 3018.804295,2413.814304 2965.165227,2387.585011 2944.407765,2372.608814 2873.537445,2364.802767 2822.634017,2284.462695 2746.660098,2180.356541 2739.450069,2169.123675 2691.938715,2095.062899 2649.135783,2030.106611 2639.561183,2013.247426 2604.800416,1952.013390 2585.025711,1920.370776 2949.514304,1797.059770 2960.584076,1827.631750 3029.933495,1811.039283 3032.665082,1822.062121 3348.740674,1772.088985 3353.066335,1781.555177 3399.324931,1767.250395 3376.996257,1693.214288 3464.479445,1663.614055 3469.384974,1678.733486 3448.150519,1686.065022 3462.265343,1727.984583 3520.881274,1710.336090 3534.640897,1756.017218 3499.640025,1846.131136 3477.090068,1881.853157 3500.277445,1902.047525 3545.262431,1915.990211 3573.781905,1923.646777 3598.309494,1930.621707 3636.704876,1997.176266 3937.900329,2518.041686 3928.823675,2545.292352 3929.122784,2570.996973 3944.922282,2586.468117 3946.512389,2593.615217 3768.327842,2677.416806 3753.733693,2650.983913 3567.444138,2745.936152 3612.220349,2834.689837 3458.499381,2862.704623 3433.019323,2853.705039 3356.391360,2843.647169 3331.078419,2817.695878 3131.777092,2819.673634"/>
    <poly id="1243675119" type="landuse.education" color="194,194,130" fill="1" layer="-3.00" shape="2587.636611,2792.198987 2536.548186,2701.471124 2529.202211,2680.071572 2527.705941,2649.704532 2527.109679,2626.876276 2522.573236,2612.746335 2517.328444,2600.801995 2538.245585,2584.873130 2682.067523,2514.650351 2683.968439,2516.307889 2727.147933,2586.594451 2738.641170,2606.384902 2788.540405,2579.125008 2779.144063,2555.656579 2775.998912,2539.768463 2777.901875,2514.085628 2782.546555,2475.440547 2792.712542,2392.411872 2743.718629,2410.943712 2731.691223,2362.013727 2701.177017,2374.836128 2683.399771,2322.571992 2668.523049,2297.543864 2713.026670,2273.785288 2659.195395,2210.636340 2670.544517,2203.372818 2633.043042,2129.997396 2681.682620,2105.858502 2578.380796,1927.802323 1829.569653,2348.264201 2006.418565,2655.131124 2055.685583,2650.419313 2077.925524,2682.627956 2085.524400,2720.163726 2104.971469,2756.984882 2118.797562,2776.266113 2138.490485,2787.941932 2169.788198,2792.345347 2196.550041,2783.582395 2222.021178,2766.335664 2251.930356,2745.024175 2296.573140,2734.066757 2307.719107,2747.486216 2381.510601,2878.632358 2397.405003,2884.535261 2587.636611,2792.198987"/>
    <poly id="145530041" type="leisure.pitch" color="207,245,201" fill="1" layer="-2.00" shape="1333.462903,1090.862748 1270.297275,983.822446 1066.218850,1098.598190 1129.528472,1206.735251 1333.462903,1090.862748"/>
    <poly id="146185671" type="natural.water" color="181,209,209" fill="1" layer="-4.00" shape="2717.387110,427.772400 2904.012616,579.472842 2957.776677,650.007569 2992.699814,706.404718 3046.710180,779.954233 3067.866822,767.084571 3078.047629,767.184720 3207.159139,936.030251 3388.683486,822.964626 3405.234899,762.422984 3399.993425,735.573487 3370.211842,688.239775 3324.117132,621.067826 3319.218979,615.549269 3125.343860,474.723698 3115.488156,469.699037 3083.301287,498.915318 2843.696307,308.422426 2717.387110,427.772400"/>
    <poly id="146185694" type="natural.water" color="181,209,209" fill="1" layer="-4.00" shape="2520.799056,253.287460 2701.423339,415.091709 2822.343932,298.368470 2616.942843,153.594423 2604.290671,153.470384 2520.799056,253.287460"/>
    <poly id="147001916" type="building.school" color="255,230,230" fill="1" layer="-1.00" shape="2537.380657,919.616811 2553.153150,909.927135 2558.038113,916.807337 2550.836313,921.387581 2569.163490,953.370183 2576.067466,949.883298 2577.419905,952.078027 2578.804478,950.995332 2585.581912,961.459750 2577.762650,965.225565 2584.371091,977.238609 2589.864896,973.261746 2595.806545,984.260573 2579.266034,993.854085 2575.418725,985.721674 2577.998980,983.997369 2568.788173,969.688758 2565.475653,971.848822 2559.521119,961.115645 2561.475387,958.399664 2543.642164,926.233666 2541.435175,926.488868 2537.380657,919.616811"/>
    <poly id="186557852" type="leisure.park" color="207,245,201" fill="1" layer="-2.00" shape="908.950561,2121.470443 926.662135,2116.681365 930.835578,2130.353181 964.462148,2118.908410 968.917336,2133.125568 988.392532,2126.205439 1022.366570,2162.412943 1048.883070,2155.716269 1089.513864,2131.428206 1082.310041,2119.432212 1096.258098,2109.457659 1089.183984,2091.494365 1103.993027,2082.602297 946.837400,1812.480953 883.781872,1849.607490 885.624433,1863.655323 844.939422,1887.157218 863.224267,1920.554604 840.875296,1931.998206 838.157887,1924.641291 830.024591,1928.117006 826.430037,1920.286509 811.501594,1927.749226 842.903261,1987.207564 877.143236,1971.737821 895.933713,2005.837787 883.130943,2015.070638 908.950561,2121.470443"/>
    <poly id="186670918" type="leisure.park" color="207,245,201" fill="1" layer="-2.00" shape="2580.185185,999.455186 2594.113712,1024.097300 2610.141953,1015.506466 2619.325867,1032.549985 2712.821389,977.679246 2632.182589,843.441977 2525.232305,904.770060 2532.337001,917.419126 2555.134125,904.487348 2601.635108,985.879087 2580.185185,999.455186"/>
    <poly id="186670920" type="leisure.pitch" color="207,245,201" fill="1" layer="-2.00" shape="2833.875919,1141.282164 2796.198900,1162.815413 2788.394969,1149.362042 2776.411341,1156.419969 2744.057186,1101.576631 2793.557974,1073.614939 2833.875919,1141.282164"/>
    <poly id="186670923" type="leisure.recreation_ground" color="207,245,201" fill="1" layer="-2.00" shape="2080.271194,1376.162881 2196.950068,1393.083363 2230.880532,1380.204690 2159.374492,1216.725869 2143.378789,1222.039739 2126.840659,1225.155784 2108.145900,1224.430434 2080.271194,1376.162881"/>
    <poly id="186670926" type="leisure.playground" color="207,245,201" fill="1" layer="-2.00" shape="2616.297506,1201.224253 2589.764794,1159.128544 2544.779023,1183.658068 2616.297506,1201.224253"/>
    <poly id="186670928" type="building.house" color="255,230,230" fill="1" layer="-1.00" shape="2746.674353,1199.491656 2762.156425,1191.172462 2774.047429,1212.339856 2758.892792,1220.728692 2746.674353,1199.491656"/>
    <poly id="240336404" type="leisure.park" color="207,245,201" fill="1" layer="-2.00" shape="2700.837359,1470.562827 2700.178980,1474.963600 2701.318482,1477.953544 2703.975145,1479.928549 2709.289163,1478.585455 2767.983336,1459.218412 2743.475564,1413.565521 2702.258959,1437.500368 2700.837359,1470.562827"/>
    <poly id="240336407" type="leisure.park" color="207,245,201" fill="1" layer="-2.00" shape="2579.579195,1384.340098 2634.283599,1351.534520 2684.586326,1438.168498 2628.804030,1469.036528 2579.579195,1384.340098"/>
    <poly id="240336409" type="leisure.pitch" color="207,245,201" fill="1" layer="-2.00" shape="2998.067745,1619.232225 3001.173751,1641.188251 3010.840429,1661.182367 3026.143204,1677.311929 3045.651258,1688.067955 3067.518916,1692.424613 3089.689269,1689.985167 3110.068662,1680.961551 3126.731168,1666.231749 3138.104976,1647.153384 3143.136527,1625.554270 3141.127136,1602.623459 3131.964016,1581.482567 3116.579436,1564.289040 3096.535313,1552.774658 3073.860376,1548.122117 3050.867368,1550.786048 3029.896509,1560.512635 3013.059507,1576.303881 3002.073992,1596.571013 2998.067745,1619.232225"/>
    <poly id="240336412" type="shop.supermarket" color="237,199,255" fill="1" layer="-1.00" shape="2181.128822,1016.775346 2206.993325,1035.077980 2227.799851,1024.340951 2208.382320,985.316513 2189.397942,977.479110 2181.128822,1016.775346"/>
    <poly id="240336415" type="amenity.public_building" color="237,199,199" fill="1" layer="-1.00" shape="2784.049797,1168.974758 2794.338124,1163.317592 2787.568868,1152.044780 2777.870353,1157.154070 2784.049797,1168.974758"/>
    <poly id="240336415#1" type="building.yes" color="255,230,230" fill="1" layer="-1.00" shape="2784.049797,1168.974758 2794.338124,1163.317592 2787.568868,1152.044780 2777.870353,1157.154070 2784.049797,1168.974758"/>
    <poly id="240336416" type="amenity.school" color="237,199,199" fill="1" layer="-1.00" shape="3189.571886,1659.951740 3330.314855,1611.020604 3267.374641,1467.120474 3177.998526,1495.219408 3208.262183,1571.559044 3154.001411,1586.317172 3189.571886,1659.951740"/>
    <poly id="240618501" type="leisure.park" color="207,245,201" fill="1" layer="-2.00" shape="1422.570003,1980.568768 1487.731090,1942.102904 1438.084608,1856.033267 1371.679021,1898.041810 1422.570003,1980.568768"/>
    <poly id="262502864" type="building.house" color="255,230,230" fill="1" layer="-1.00" shape="2718.169971,1204.748574 2733.936583,1196.686835 2719.175884,1170.164980 2703.556627,1178.881515 2718.169971,1204.748574"/>
    <poly id="262503614" type="amenity.post_office" color="237,199,199" fill="1" layer="-1.00" shape="2186.813589,1219.718266 2195.916671,1227.237569 2208.296816,1224.678892 2215.455270,1211.925884 2197.332378,1200.952023 2186.813589,1219.718266"/>
    <poly id="262503615" type="leisure.park" color="207,245,201" fill="1" layer="-2.00" shape="2043.317666,1112.907645 2041.533962,1127.562499 2042.620466,1142.289690 2046.531318,1156.535099 2053.117811,1169.776826 2062.149115,1181.503240 2073.260259,1191.289991 2086.065121,1198.778958 2100.074410,1203.677455 2114.777254,1205.803316 2129.610328,1205.095667 2144.030164,1201.560269 2157.491992,1195.335748 2169.511581,1186.660981 2179.624440,1175.852550 2189.458331,1158.973159 2194.676511,1140.177221 2194.949230,1120.679582 2190.253872,1101.742394 2180.896223,1084.597804 2167.490728,1070.370244 2150.889812,1059.965008 2132.194134,1054.068344 2112.609806,1053.068544 2093.407704,1057.022324 2075.831084,1065.664997 2061.023376,1078.454056 2049.946380,1094.546238 2043.317666,1112.907645"/>
    <poly id="262503906" type="building.public" color="255,230,230" fill="1" layer="-1.00" shape="1932.944361,1028.557608 1941.646892,1001.512704 1962.268303,1007.616174 1960.574696,1015.151706 2009.359035,1029.957130 2014.982460,1016.890058 1984.307026,1007.178052 1987.667282,998.019933 2030.445654,1010.474572 2018.538643,1046.457601 1991.438098,1037.112699 1980.445004,1064.567073 1967.836336,1060.069945 1976.918883,1034.014303 1954.962364,1026.037441 1953.241987,1034.214970 1932.944361,1028.557608"/>
    <poly id="262503907" type="leisure.pitch" color="207,245,201" fill="1" layer="-2.00" shape="2007.158329,919.345423 2062.851672,1015.165178 2140.285354,971.074622 2159.207117,895.129829 2079.126279,877.449060 2007.158329,919.345423"/>
    <poly id="262503908" type="building.retail" color="255,230,230" fill="1" layer="-1.00" shape="1982.266849,1216.080290 1989.804206,1230.649012 2011.394682,1218.335866 2004.104473,1203.658813 1982.266849,1216.080290"/>
    <poly id="262507118" type="landuse.retail" color="194,194,130" fill="1" layer="-3.00" shape="3018.646191,1313.751479 2976.471512,1240.052513 3053.928525,1193.785301 3098.217679,1268.269374 3018.646191,1313.751479"/>
    <poly id="263260421" type="amenity.bank" color="237,199,199" fill="1" layer="-1.00" shape="2253.931646,1179.846083 2278.436323,1187.239305 2268.157118,1222.374376 2246.542760,1215.098033 2249.381362,1205.824125 2235.681306,1200.762409 2242.064925,1185.466016 2251.200544,1188.611665 2253.931646,1179.846083"/>
    <poly id="263260421#1" type="building.public" color="255,230,230" fill="1" layer="-1.00" shape="2253.931646,1179.846083 2278.436323,1187.239305 2268.157118,1222.374376 2246.542760,1215.098033 2249.381362,1205.824125 2235.681306,1200.762409 2242.064925,1185.466016 2251.200544,1188.611665 2253.931646,1179.846083"/>
    <poly id="263307268" type="amenity.public_building" color="237,199,199" fill="1" layer="-1.00" shape="2071.696519,844.510556 2075.753511,852.201929 2106.172007,834.726347 2136.762128,841.658319 2133.778063,851.130145 2119.868453,847.539277 2116.783332,858.959039 2147.653758,866.580329 2155.236620,836.645488 2104.737691,824.115067 2071.696519,844.510556"/>
    <poly id="263307268#1" type="building.yes" color="255,230,230" fill="1" layer="-1.00" shape="2071.696519,844.510556 2075.753511,852.201929 2106.172007,834.726347 2136.762128,841.658319 2133.778063,851.130145 2119.868453,847.539277 2116.783332,858.959039 2147.653758,866.580329 2155.236620,836.645488 2104.737691,824.115067 2071.696519,844.510556"/>
    <poly id="263307338" type="amenity.public_building" color="237,199,199" fill="1" layer="-1.00" shape="2104.668663,801.801453 2116.189685,793.808308 2106.868879,776.010816 2095.252357,783.283263 2104.668663,801.801453"/>
    <poly id="263307338#1" type="building.yes" color="255,230,230" fill="1" layer="-1.00" shape="2104.668663,801.801453 2116.189685,793.808308 2106.868879,776.010816 2095.252357,783.283263 2104.668663,801.801453"/>
    <poly id="263307339" type="amenity.public_building" color="237,199,199" fill="1" layer="-1.00" shape="1754.414214,1184.102435 1761.888567,1197.795613 1772.234504,1192.492685 1773.813380,1187.248214 1767.865951,1176.792282 1754.414214,1184.102435"/>
    <poly id="263307339#1" type="building.yes" color="255,230,230" fill="1" layer="-1.00" shape="1754.414214,1184.102435 1761.888567,1197.795613 1772.234504,1192.492685 1773.813380,1187.248214 1767.865951,1176.792282 1754.414214,1184.102435"/>
    <poly id="263307340" type="amenity.public_building" color="237,199,199" fill="1" layer="-1.00" shape="2019.146892,819.380988 2025.744069,831.548669 2040.842519,822.604881 2034.083257,810.236288 2019.146892,819.380988"/>
    <poly id="263307340#1" type="building.yes" color="255,230,230" fill="1" layer="-1.00" shape="2019.146892,819.380988 2025.744069,831.548669 2040.842519,822.604881 2034.083257,810.236288 2019.146892,819.380988"/>
    <poly id="345649133" type="building.yes" color="255,230,230" fill="1" layer="-1.00" shape="2529.964453,1794.257790 2507.263783,1753.561755 2516.102777,1749.274400 2532.313932,1778.412571 2560.502467,1764.470687 2552.958801,1748.539521 2560.684790,1745.880147 2572.018755,1768.415050 2529.964453,1794.257790"/>
    <poly id="345727368" type="building.yes" color="255,230,230" fill="1" layer="-1.00" shape="2051.199680,1420.637552 2076.794026,1446.589103 2097.698470,1445.697165 2118.171812,1433.317896 2121.154600,1409.284499 2091.619498,1393.138628 2068.090805,1380.329253 2061.541893,1374.794980 2051.199680,1420.637552"/>
    <poly id="345727369" type="building.hotel" color="255,230,230" fill="1" layer="-1.00" shape="2302.852415,1670.833767 2327.718313,1659.051463 2327.771869,1653.581708 2318.938194,1657.326627 2315.674577,1653.463264 2323.411296,1649.707602 2319.061345,1644.748405 2295.813802,1659.835377 2302.852415,1670.833767"/>
    <poly id="345727371" type="building.yes" color="255,230,230" fill="1" layer="-1.00" shape="2293.652449,1655.440211 2289.888286,1647.197945 2307.614497,1633.695777 2313.566780,1643.598339 2293.652449,1655.440211"/>
    <poly id="345727371#1" type="shop.car" color="237,199,255" fill="1" layer="-1.00" shape="2293.652449,1655.440211 2289.888286,1647.197945 2307.614497,1633.695777 2313.566780,1643.598339 2293.652449,1655.440211"/>
    <poly id="345727372" type="amenity.clinic" color="237,199,199" fill="1" layer="-1.00" shape="2235.242172,1554.786828 2228.182582,1544.873469 2245.306656,1537.378209 2251.275058,1545.642029 2235.242172,1554.786828"/>
    <poly id="345727372#1" type="building.yes" color="255,230,230" fill="1" layer="-1.00" shape="2235.242172,1554.786828 2228.182582,1544.873469 2245.306656,1537.378209 2251.275058,1545.642029 2235.242172,1554.786828"/>
    <poly id="345727373" type="amenity.restaurant" color="237,199,199" fill="1" layer="-1.00" shape="2226.047584,1538.828632 2237.117554,1531.827801 2231.170481,1521.382729 2219.009321,1526.734021 2226.047584,1538.828632"/>
    <poly id="345727373#1" type="building.yes" color="255,230,230" fill="1" layer="-1.00" shape="2226.047584,1538.828632 2237.117554,1531.827801 2231.170481,1521.382729 2219.009321,1526.734021 2226.047584,1538.828632"/>
    <poly id="346306266" type="building.school" color="255,230,230" fill="1" layer="-1.00" shape="1529.462063,1482.819082 1539.505299,1499.095122 1527.865990,1507.740839 1524.335594,1503.875065 1505.532106,1514.355664 1512.792201,1531.102892 1505.335151,1534.584849 1496.951880,1519.465553 1491.435464,1521.604381 1486.145177,1508.940278 1529.462063,1482.819082"/>
    <poly id="757249380" type="building.yes" color="255,230,230" fill="1" layer="-1.00" shape="2356.227988,1245.848416 2373.521943,1251.410524 2366.650478,1272.537794 2347.250987,1266.301744 2350.602411,1255.969822 2347.137426,1254.861772 2350.213946,1245.379813 2355.794637,1247.172985 2356.227988,1245.848416"/>
    <poly id="757249604" type="building.yes" color="255,230,230" fill="1" layer="-1.00" shape="2281.054356,1618.497710 2285.560226,1629.526665 2296.039099,1625.299527 2291.533235,1614.270568 2281.054356,1618.497710"/>
    <poly id="888319078" type="leisure.park" color="207,245,201" fill="1" layer="-2.00" shape="1024.119238,775.179469 1062.848671,751.714269 1094.477276,802.770470 1052.005767,826.199274 1024.119238,775.179469"/>
    <poly id="888319241" type="leisure.park" color="207,245,201" fill="1" layer="-2.00" shape="930.135632,669.458650 963.891432,717.977207 1022.150989,682.121946 992.845388,632.539077 930.135632,669.458650"/>
    <poly id="888319345" type="leisure.park" color="207,245,201" fill="1" layer="-2.00" shape="827.738575,805.488060 838.101617,875.660683 891.133896,845.855743 856.213541,788.434147 827.738575,805.488060"/>
    <poly id="888319625" type="leisure.park" color="207,245,201" fill="1" layer="-2.00" shape="2441.179954,1662.953350 2459.497003,1695.888106 2562.540441,1658.074796 2532.417529,1607.860297 2468.476905,1646.887522 2441.179954,1662.953350"/>
    <poly id="893990806" type="leisure.park" color="207,245,201" fill="0" layer="-2.00" shape="3134.139772,1092.754030 2969.713974,806.260676 2878.012865,651.128420 2683.853483,504.459194 2593.476202,430.299916 2402.213937,278.314658 2366.057838,249.081227 2417.773688,220.242926 2455.708448,215.487404 2516.078211,246.375677 2594.193099,143.792878 2611.708795,139.413406 2842.111875,293.302685 3089.369804,481.368209 3115.488156,469.699037 3319.218979,615.549269 3401.046933,735.838563 3405.234899,762.422984 3372.022643,950.787672 3452.531947,1159.818439"/>
    <poi id="11559113238" type="shop.ticket" color="237,199,255" layer="4.00" x="2614.34" y="1893.23"/>
    <poi id="1602432297" type="population.100600" color="51,128,255" layer="4.00" x="2118.78" y="1131.33"/>
    <poi id="1974225477" type="amenity.atm" color="237,199,199" layer="4.00" x="2298.97" y="1197.83"/>
    <poi id="1974225498" type="amenity.atm" color="237,199,199" layer="4.00" x="2371.32" y="1214.08"/>
    <poi id="2483664484" type="amenity.pharmacy" color="237,199,199" layer="4.00" x="2387.92" y="1120.46"/>
    <poi id="2688769701" type="shop.hifi" color="237,199,255" layer="4.00" x="2232.89" y="1150.71"/>
    <poi id="2688769709" type="shop.hairdresser" color="237,199,255" layer="4.00" x="2241.94" y="1152.99"/>
    <poi id="2688784440" type="shop.hifi" color="237,199,255" layer="4.00" x="2227.90" y="1121.08"/>
    <poi id="2688784454" type="shop.bakery" color="237,199,255" layer="4.00" x="2203.10" y="1069.15"/>
    <poi id="2688784462" type="shop.confectionery" color="237,199,255" layer="4.00" x="2214.13" y="1066.80"/>
    <poi id="2688804432" type="shop.convenience" color="237,199,255" layer="4.00" x="2079.69" y="1221.15"/>
    <poi id="2688804433" type="amenity.pharmacy" color="237,199,199" layer="4.00" x="2033.03" y="1211.67"/>
    <poi id="2688804434" type="shop.music" color="237,199,255" layer="4.00" x="2046.27" y="1207.70"/>
    <poi id="2688804435" type="shop.convenience" color="237,199,255" layer="4.00" x="1956.92" y="1232.53"/>
    <poi id="2688813919" type="amenity.atm" color="237,199,199" layer="4.00" x="2001.98" y="1208.91"/>
    <poi id="2688813927" type="shop.bakery" color="237,199,255" layer="4.00" x="1990.65" y="1214.55"/>
    <poi id="2689329311" type="amenity.atm" color="237,199,199" layer="4.00" x="2155.24" y="836.65"/>
    <poi id="3455006625" type="building.school" color="255,230,230" layer="4.00" x="3152.63" y="1524.89"/>
    <poi id="3512180087" type="amenity.telephone" color="237,199,199" layer="4.00" x="2068.09" y="1380.33"/>
    <poi id="3512180088" type="amenity.restaurant" color="237,199,199" layer="4.00" x="2038.31" y="1399.94"/>
    <poi id="3522898196" type="shop.books" color="237,199,255" layer="4.00" x="2079.75" y="1233.93"/>
    <poi id="3522898211" type="amenity.bank" color="237,199,199" layer="4.00" x="2435.10" y="1652.23"/>
    <poi id="3522898212" type="amenity.bank" color="237,199,199" layer="4.00" x="2349.60" y="1580.32"/>
    <poi id="3522898213" type="amenity.bank" color="237,199,199" layer="4.00" x="2299.88" y="1490.14"/>
    <poi id="3522898214" type="amenity.restaurant" color="237,199,199" layer="4.00" x="2372.69" y="991.81"/>
    <poi id="3523733285" type="amenity.fast_food" color="237,199,199" layer="4.00" x="2306.64" y="1677.44"/>
    <poi id="3523734494" type="amenity.restaurant" color="237,199,199" layer="4.00" x="2295.81" y="1659.84"/>
    <poi id="3523734507" type="amenity.restaurant" color="237,199,199" layer="4.00" x="2219.49" y="1534.39"/>
    <poi id="3827017861" type="amenity.cafe" color="237,199,199" layer="4.00" x="2362.82" y="1580.88"/>
    <poi id="3827017862" type="amenity.fast_food" color="237,199,199" layer="4.00" x="2551.02" y="1682.94"/>
    <poi id="3860610109" type="tourism.hostel" color="207,245,201" layer="3.00" x="2289.94" y="1692.15"/>
    <poi id="3860641385" type="amenity.restaurant" color="237,199,199" layer="4.00" x="2312.32" y="1681.57"/>
    <poi id="3860641386" type="amenity.bank" color="237,199,199" layer="4.00" x="2392.66" y="1621.37"/>
    <poi id="3860641387" type="amenity.bank" color="237,199,199" layer="4.00" x="2350.28" y="1568.18"/>
    <poi id="3860641388" type="amenity.bank" color="237,199,199" layer="4.00" x="2334.92" y="1536.32"/>
    <poi id="3860641389" type="amenity.restaurant" color="237,199,199" layer="4.00" x="2379.82" y="1557.27"/>
    <poi id="3860641390" type="amenity.hospital" color="237,199,199" layer="4.00" x="2388.65" y="1609.85"/>
    <poi id="3860641391" type="amenity.restaurant" color="237,199,199" layer="4.00" x="2483.42" y="1705.25"/>
    <poi id="3860641392" type="amenity.hospital" color="237,199,199" layer="4.00" x="2447.46" y="1726.23"/>
    <poi id="4265807393" type="amenity.restaurant" color="237,199,199" layer="4.00" x="2161.25" y="987.81"/>
    <poi id="4265807394" type="amenity.fast_food" color="237,199,199" layer="4.00" x="2154.58" y="1009.35"/>
    <poi id="7071670247" type="amenity.clinic" color="237,199,199" layer="4.00" x="2288.59" y="1622.33"/>
    <poi id="7071676997" type="amenity.clinic" color="237,199,199" layer="4.00" x="2361.18" y="1255.04"/>
</additional>
