<?xml version="1.0" encoding="UTF-8"?>

<!-- generated on 03/12/25 01:13:37 by Eclipse SUMO duarouter Version 1.3.0
<configuration xmlns:xsi="http://www.w3.org/2001/XMLSchema-instance" xsi:noNamespaceSchemaLocation="http://sumo.dlr.de/xsd/duarouterConfiguration.xsd">

    <input>
        <net-file value="C:\Users\SWAYANGDIPTA%20DEY\Sumo\2025-03-12-01-13-27\osm.net.xml"/>
        <route-files value="C:\Users\SWAYANGDIPTA%20DEY\Sumo\2025-03-12-01-13-27\osm.passenger.trips.xml"/>
    </input>

    <output>
        <output-file value="C:\Users\SWAYANGDIPTA%20DEY\Sumo\2025-03-12-01-13-27\osm.passenger.trips.xml.tmp"/>
        <write-trips value="true"/>
    </output>

    <time>
        <begin value="0"/>
        <end value="3600.0"/>
    </time>

    <report>
        <no-warnings value="true"/>
        <ignore-errors value="true"/>
        <no-step-log value="true"/>
    </report>

</configuration>
-->

<routes xmlns:xsi="http://www.w3.org/2001/XMLSchema-instance" xsi:noNamespaceSchemaLocation="http://sumo.dlr.de/xsd/routes_file.xsd">
    <vType id="veh_passenger" vClass="passenger"/>
    <trip id="veh1" type="veh_passenger" depart="2.07" departLane="best" from="-240336414" to="-146185588"/>
    <trip id="veh2" type="veh_passenger" depart="4.14" departLane="best" from="-240336414" to="-146185588"/>
    <trip id="veh3" type="veh_passenger" depart="6.21" departLane="best" from="-240336414" to="-146185588"/>
    <trip id="veh4" type="veh_passenger" depart="8.28" departLane="best" from="-240336414" to="-146185588"/>
    <trip id="veh5" type="veh_passenger" depart="10.35" departLane="best" from="-240336414" to="-146185588"/>
    <trip id="veh6" type="veh_passenger" depart="12.42" departLane="best" from="-240336414" to="-146185588"/>
    <trip id="veh7" type="veh_passenger" depart="14.49" departLane="best" from="-240336414" to="-146185588"/>
    <trip id="veh8" type="veh_passenger" depart="16.56" departLane="best" from="-240336414" to="-146185588"/>
    <trip id="veh9" type="veh_passenger" depart="18.63" departLane="best" from="-240336414" to="-146185588"/>
    <trip id="veh10" type="veh_passenger" depart="20.70" departLane="best" from="-240336414" to="-146185588"/>
    <trip id="veh11" type="veh_passenger" depart="22.77" departLane="best" from="-240336414" to="-146185588"/>
    <trip id="veh12" type="veh_passenger" depart="24.84" departLane="best" from="890734829#4" to="-345727362#0"/>
    <trip id="veh13" type="veh_passenger" depart="26.91" departLane="best" from="-1046461381" to="-1046461387"/>
    <trip id="veh14" type="veh_passenger" depart="28.98" departLane="best" from="263263998#0" to="186555991"/>
    <trip id="veh15" type="veh_passenger" depart="31.05" departLane="best" from="1013484958" to="890919779#1"/>
    <trip id="veh16" type="veh_passenger" depart="33.11" departLane="best" from="-890687268#1" to="1013519539#1"/>
    <trip id="veh17" type="veh_passenger" depart="35.18" departLane="best" from="345727362#2" to="145535309#1"/>
    <trip id="veh19" type="veh_passenger" depart="39.32" departLane="best" from="147000072#1" to="-1013482261#1"/>
    <trip id="veh20" type="veh_passenger" depart="41.39" departLane="best" from="-147000072#3" to="-240618498#5"/>
    <trip id="veh21" type="veh_passenger" depart="43.46" departLane="best" from="-1013484973#1" to="-147001780#0"/>
    <trip id="veh22" type="veh_passenger" depart="45.53" departLane="best" from="-1053024959" to="-240336418#4"/>
    <trip id="veh23" type="veh_passenger" depart="47.60" departLane="best" from="146175334#1" to="-44963239#10"/>
    <trip id="veh24" type="veh_passenger" depart="49.67" departLane="best" from="-44963240#1" to="-146185507#12"/>
    <trip id="veh25" type="veh_passenger" depart="51.74" departLane="best" from="-240336410" to="890733344#0"/>
    <trip id="veh26" type="veh_passenger" depart="53.81" departLane="best" from="146176834#0" to="145533698#16"/>
    <trip id="veh27" type="veh_passenger" depart="55.88" departLane="best" from="-146176834#1" to="186555990#1"/>
    <trip id="veh28" type="veh_passenger" depart="57.95" departLane="best" from="-146175427#1" to="-890687268#3"/>
    <trip id="veh29" type="veh_passenger" depart="60.02" departLane="best" from="890919783#2" to="146175366#2"/>
    <trip id="veh30" type="veh_passenger" depart="62.09" departLane="best" from="1030027371" to="146185386#6"/>
    <trip id="veh31" type="veh_passenger" depart="64.16" departLane="best" from="380713427#8" to="240618506#4"/>
    <trip id="veh32" type="veh_passenger" depart="66.23" departLane="best" from="-147000072#5" to="-1013482245#1"/>
    <trip id="veh33" type="veh_passenger" depart="68.30" departLane="best" from="-263263997" to="-240336411#10"/>
    <trip id="veh34" type="veh_passenger" depart="70.37" departLane="best" from="-146185507#15" to="890733348"/>
    <trip id="veh35" type="veh_passenger" depart="72.44" departLane="best" from="44963240#9" to="-262504081#2"/>
    <trip id="veh36" type="veh_passenger" depart="74.51" departLane="best" from="146177316#2" to="-890733311#3"/>
    <trip id="veh37" type="veh_passenger" depart="76.58" departLane="best" from="890733329#1" to="-890919782#0"/>
    <trip id="veh38" type="veh_passenger" depart="78.65" departLane="best" from="-240336408#0" to="-186555982#1"/>
    <trip id="veh39" type="veh_passenger" depart="80.72" departLane="best" from="1046461384" to="-240336405#4"/>
    <trip id="veh40" type="veh_passenger" depart="82.79" departLane="best" from="145529440#0" to="890693873#3"/>
    <trip id="veh41" type="veh_passenger" depart="84.86" departLane="best" from="-890733313#0" to="-146185508#6"/>
    <trip id="veh42" type="veh_passenger" depart="86.93" departLane="best" from="890919788#3" to="1013482259#0"/>
    <trip id="veh44" type="veh_passenger" depart="91.07" departLane="best" from="262415248#0" to="-890733335#4"/>
    <trip id="veh45" type="veh_passenger" depart="93.14" departLane="best" from="-1013484951" to="-890691657"/>
    <trip id="veh46" type="veh_passenger" depart="95.21" departLane="best" from="890919788#0" to="1013484949"/>
    <trip id="veh47" type="veh_passenger" depart="97.27" departLane="best" from="-1013482227#2" to="147934435#2"/>
    <trip id="veh48" type="veh_passenger" depart="99.34" departLane="best" from="146185386#1" to="1013484959"/>
    <trip id="veh49" type="veh_passenger" depart="101.41" departLane="best" from="-240336410" to="146175427#0"/>
    <trip id="veh51" type="veh_passenger" depart="105.55" departLane="best" from="44963240#8" to="-240336406#0"/>
    <trip id="veh52" type="veh_passenger" depart="107.62" departLane="best" from="1013482248#1" to="-146177316#4"/>
    <trip id="veh53" type="veh_passenger" depart="109.69" departLane="best" from="890733328#3" to="44963239#7"/>
    <trip id="veh54" type="veh_passenger" depart="111.76" departLane="best" from="-240618506#4" to="146175366#1"/>
    <trip id="veh55" type="veh_passenger" depart="113.83" departLane="best" from="145533698#16" to="-145889835#4"/>
    <trip id="veh56" type="veh_passenger" depart="115.90" departLane="best" from="240336656#1" to="1013484965#0"/>
    <trip id="veh57" type="veh_passenger" depart="117.97" departLane="best" from="241116028#1" to="1013484952"/>
    <trip id="veh58" type="veh_passenger" depart="120.04" departLane="best" from="-1005463897#1" to="-300531941"/>
    <trip id="veh59" type="veh_passenger" depart="122.11" departLane="best" from="-1013482236#0" to="890733336"/>
    <trip id="veh60" type="veh_passenger" depart="124.18" departLane="best" from="44963241#3" to="345727364#2"/>
    <trip id="veh61" type="veh_passenger" depart="126.25" departLane="best" from="-262502869#1" to="-1013484944"/>
    <trip id="veh62" type="veh_passenger" depart="128.32" departLane="best" from="44963241#2" to="890733352#0"/>
    <trip id="veh63" type="veh_passenger" depart="130.39" departLane="best" from="-1013519539#1" to="1013482236#1"/>
    <trip id="veh64" type="veh_passenger" depart="132.46" departLane="best" from="-1013484957" to="240336654"/>
    <trip id="veh65" type="veh_passenger" depart="134.53" departLane="best" from="240618498#3" to="-145531420#4"/>
    <trip id="veh66" type="veh_passenger" depart="136.60" departLane="best" from="1013482226#1" to="1013484978#0"/>
    <trip id="veh67" type="veh_passenger" depart="138.67" departLane="best" from="-240336408#0" to="44963240#2"/>
    <trip id="veh68" type="veh_passenger" depart="140.74" departLane="best" from="-890733335#6" to="-146185507#16"/>
    <trip id="veh69" type="veh_passenger" depart="142.81" departLane="best" from="1013484965#0" to="186555991"/>
    <trip id="veh70" type="veh_passenger" depart="144.88" departLane="best" from="-146185311#7" to="-262504079#2"/>
    <trip id="veh71" type="veh_passenger" depart="146.95" departLane="best" from="890919784#4" to="146176834#2"/>
    <trip id="veh72" type="veh_passenger" depart="149.02" departLane="best" from="-345727363" to="145529440#3"/>
    <trip id="veh73" type="veh_passenger" depart="151.09" departLane="best" from="-147001779#0" to="-146185508#9"/>
    <trip id="veh74" type="veh_passenger" depart="153.16" departLane="best" from="-1013484960" to="145889835#5"/>
    <trip id="veh75" type="veh_passenger" depart="155.23" departLane="best" from="-147000072#5" to="890733315#0"/>
    <trip id="veh76" type="veh_passenger" depart="157.30" departLane="best" from="44963237#2" to="-1013484960"/>
    <trip id="veh77" type="veh_passenger" depart="159.37" departLane="best" from="-147001918#3" to="146177403#2"/>
    <trip id="veh78" type="veh_passenger" depart="161.43" departLane="best" from="-146185507#8" to="-145531420#7"/>
    <trip id="veh79" type="veh_passenger" depart="163.50" departLane="best" from="890733342#1" to="1126169358#0"/>
    <trip id="veh80" type="veh_passenger" depart="165.57" departLane="best" from="1013482224#2" to="241116028#3"/>
    <trip id="veh81" type="veh_passenger" depart="167.64" departLane="best" from="263263998#0" to="-146177403#1"/>
    <trip id="veh82" type="veh_passenger" depart="169.71" departLane="best" from="186555990#1" to="146185311#2"/>
    <trip id="veh83" type="veh_passenger" depart="171.78" departLane="best" from="890919781#2" to="-1046461391"/>
    <trip id="veh84" type="veh_passenger" depart="173.85" departLane="best" from="-890733317#1" to="-345727364#1"/>
    <trip id="veh85" type="veh_passenger" depart="175.92" departLane="best" from="44963237#6" to="-186555986#0"/>
    <trip id="veh86" type="veh_passenger" depart="177.99" departLane="best" from="-146177403#0" to="-890734828#4"/>
    <trip id="veh87" type="veh_passenger" depart="180.06" departLane="best" from="-890733335#4" to="-240336418#6"/>
    <trip id="veh88" type="veh_passenger" depart="182.13" departLane="best" from="-186555989#0" to="890733334#3"/>
    <trip id="veh89" type="veh_passenger" depart="184.20" departLane="best" from="-890733352#3" to="44963237#5"/>
    <trip id="veh90" type="veh_passenger" depart="186.27" departLane="best" from="1013484978#1" to="-1013482266"/>
    <trip id="veh91" type="veh_passenger" depart="188.34" departLane="best" from="890922318#1" to="349649168#3"/>
    <trip id="veh92" type="veh_passenger" depart="190.41" departLane="best" from="890919778#0" to="890733335#2"/>
    <trip id="veh93" type="veh_passenger" depart="192.48" departLane="best" from="44963182#1" to="-146175711#2"/>
    <trip id="veh94" type="veh_passenger" depart="194.55" departLane="best" from="1013482236#0" to="-146185507#7"/>
    <trip id="veh95" type="veh_passenger" depart="196.62" departLane="best" from="-890733315#1" to="-1013484945#0"/>
    <trip id="veh96" type="veh_passenger" depart="198.69" departLane="best" from="-890687268#3" to="890919782#0"/>
    <trip id="veh97" type="veh_passenger" depart="200.76" departLane="best" from="-240336408#0" to="241116028#3"/>
    <trip id="veh98" type="veh_passenger" depart="202.83" departLane="best" from="-890919774#1" to="-890733335#6"/>
    <trip id="veh99" type="veh_passenger" depart="204.90" departLane="best" from="890734834#0" to="890919784#4"/>
    <trip id="veh100" type="veh_passenger" depart="206.97" departLane="best" from="1014065064" to="147686885#2"/>
    <trip id="veh101" type="veh_passenger" depart="209.04" departLane="best" from="-145889835#8" to="-240618506#0"/>
    <trip id="veh103" type="veh_passenger" depart="213.18" departLane="best" from="1013482249#2" to="44963235#1"/>
    <trip id="veh104" type="veh_passenger" depart="215.25" departLane="best" from="-146175334#0" to="890919773#1"/>
    <trip id="veh105" type="veh_passenger" depart="217.32" departLane="best" from="145531420#3" to="146185311#4"/>
    <trip id="veh106" type="veh_passenger" depart="219.39" departLane="best" from="-147001781#1" to="-145529440#2"/>
    <trip id="veh107" type="veh_passenger" depart="221.46" departLane="best" from="890693867#2" to="-186555982#0"/>
    <trip id="veh108" type="veh_passenger" depart="223.53" departLane="best" from="145531420#3" to="145535309#10"/>
    <trip id="veh109" type="veh_passenger" depart="225.59" departLane="best" from="-890733334#5" to="144366657#2"/>
    <trip id="veh110" type="veh_passenger" depart="227.66" departLane="best" from="1013484941" to="890733342#0"/>
    <trip id="veh111" type="veh_passenger" depart="229.73" departLane="best" from="-147001919#0" to="-890733311#5"/>
    <trip id="veh112" type="veh_passenger" depart="231.80" departLane="best" from="146185311#0" to="-240618506#6"/>
    <trip id="veh113" type="veh_passenger" depart="233.87" departLane="best" from="-263263998#0" to="240336413#2"/>
    <trip id="veh114" type="veh_passenger" depart="235.94" departLane="best" from="-1013484965#0" to="-890919781#2"/>
    <trip id="veh115" type="veh_passenger" depart="238.01" departLane="best" from="890922318#0" to="890919788#0"/>
    <trip id="veh116" type="veh_passenger" depart="240.08" departLane="best" from="-1013484965#1" to="-146185507#5"/>
    <trip id="veh117" type="veh_passenger" depart="242.15" departLane="best" from="-240336408#0" to="890733340#2"/>
    <trip id="veh118" type="veh_passenger" depart="244.22" departLane="best" from="44963244#0" to="44963241#4"/>
    <trip id="veh119" type="veh_passenger" depart="246.29" departLane="best" from="-44963240#0" to="-146175334#0"/>
    <trip id="veh120" type="veh_passenger" depart="248.36" departLane="best" from="345727367#1" to="146185739#5"/>
    <trip id="veh121" type="veh_passenger" depart="250.43" departLane="best" from="145533698#4" to="890919782#2"/>
    <trip id="veh122" type="veh_passenger" depart="252.50" departLane="best" from="146176834#7" to="-1013482225#1"/>
    <trip id="veh123" type="veh_passenger" depart="254.57" departLane="best" from="300531942#1" to="-240618506#5"/>
    <trip id="veh124" type="veh_passenger" depart="256.64" departLane="best" from="-145532452#4" to="-1243108610"/>
    <trip id="veh126" type="veh_passenger" depart="260.78" departLane="best" from="-240336411#7" to="145533698#12"/>
    <trip id="veh127" type="veh_passenger" depart="262.85" departLane="best" from="147001919#3" to="-146185311#9"/>
    <trip id="veh128" type="veh_passenger" depart="264.92" departLane="best" from="145889837#1" to="-240336406#1"/>
    <trip id="veh129" type="veh_passenger" depart="266.99" departLane="best" from="1013482239#0" to="890733313#1"/>
    <trip id="veh130" type="veh_passenger" depart="269.06" departLane="best" from="380713428#6" to="-1046461380#1"/>
    <trip id="veh131" type="veh_passenger" depart="271.13" departLane="best" from="-890733336" to="-240336418#1"/>
    <trip id="veh132" type="veh_passenger" depart="273.20" departLane="best" from="-1013482220#1" to="240618502#3"/>
    <trip id="veh133" type="veh_passenger" depart="275.27" departLane="best" from="146175335#0" to="-240336405#1"/>
    <trip id="veh134" type="veh_passenger" depart="277.34" departLane="best" from="240336406#1" to="1013519539#0"/>
    <trip id="veh135" type="veh_passenger" depart="279.41" departLane="best" from="-890733340#2" to="-1013482226#1"/>
    <trip id="veh136" type="veh_passenger" depart="281.48" departLane="best" from="-1013484968" to="44963244#2"/>
    <trip id="veh137" type="veh_passenger" depart="283.55" departLane="best" from="890733312#1" to="1013484973#0"/>
    <trip id="veh138" type="veh_passenger" depart="285.62" departLane="best" from="349649168#1" to="1243108610"/>
    <trip id="veh139" type="veh_passenger" depart="287.68" departLane="best" from="-145533698#8" to="-145531420#3"/>
    <trip id="veh140" type="veh_passenger" depart="289.75" departLane="best" from="-262502870#2" to="890733311#1"/>
    <trip id="veh141" type="veh_passenger" depart="291.82" departLane="best" from="262415258#1" to="44963237#4"/>
    <trip id="veh142" type="veh_passenger" depart="293.89" departLane="best" from="890733311#1" to="-146185507#13"/>
    <trip id="veh143" type="veh_passenger" depart="295.96" departLane="best" from="-186555986#1" to="-1126169349#1"/>
    <trip id="veh144" type="veh_passenger" depart="298.03" departLane="best" from="241116028#10" to="890687268#1"/>
    <trip id="veh145" type="veh_passenger" depart="300.10" departLane="best" from="-890733328#1" to="145535309#2"/>
    <trip id="veh146" type="veh_passenger" depart="302.17" departLane="best" from="-145889835#7" to="890733338#0"/>
    <trip id="veh147" type="veh_passenger" depart="304.24" departLane="best" from="44963238#3" to="890919779#3"/>
    <trip id="veh148" type="veh_passenger" depart="306.31" departLane="best" from="263263999#1" to="44963244#0"/>
    <trip id="veh149" type="veh_passenger" depart="308.38" departLane="best" from="-1013482241#1" to="186670934#2"/>
    <trip id="veh150" type="veh_passenger" depart="310.45" departLane="best" from="-300531946#3" to="890733338#2"/>
    <trip id="veh151" type="veh_passenger" depart="312.52" departLane="best" from="262504079#1" to="44963238#2"/>
    <trip id="veh152" type="veh_passenger" depart="314.59" departLane="best" from="263263999#1" to="-240336410"/>
    <trip id="veh154" type="veh_passenger" depart="318.73" departLane="best" from="44963240#1" to="44963237#0"/>
    <trip id="veh155" type="veh_passenger" depart="320.80" departLane="best" from="-146185570#2" to="300531942#0"/>
    <trip id="veh156" type="veh_passenger" depart="322.87" departLane="best" from="262415258#0" to="-147000072#3"/>
    <trip id="veh157" type="veh_passenger" depart="324.94" departLane="best" from="-1013482239#3" to="-146185311#0"/>
    <trip id="veh158" type="veh_passenger" depart="327.01" departLane="best" from="-300531945#0" to="44963238#3"/>
    <trip id="veh159" type="veh_passenger" depart="329.08" departLane="best" from="890919775#3" to="-240336420#0"/>
    <trip id="veh160" type="veh_passenger" depart="331.15" departLane="best" from="146175427#1" to="-890733313#1"/>
    <trip id="veh161" type="veh_passenger" depart="333.22" departLane="best" from="890919780#4" to="1013484957"/>
    <trip id="veh162" type="veh_passenger" depart="335.29" departLane="best" from="890733345#2" to="-1243108610"/>
    <trip id="veh163" type="veh_passenger" depart="337.36" departLane="best" from="890919778#1" to="-146177316#4"/>
    <trip id="veh164" type="veh_passenger" depart="339.43" departLane="best" from="890919773#2" to="-240336408#1"/>
    <trip id="veh166" type="veh_passenger" depart="343.57" departLane="best" from="186555990#0" to="-262504081#0"/>
    <trip id="veh167" type="veh_passenger" depart="345.64" departLane="best" from="145533698#14" to="1013482261#0"/>
    <trip id="veh169" type="veh_passenger" depart="349.78" departLane="best" from="-186670931#2" to="147001779#2"/>
    <trip id="veh170" type="veh_passenger" depart="351.84" departLane="best" from="-1013482219#0" to="890733335#1"/>
    <trip id="veh171" type="veh_passenger" depart="353.91" departLane="best" from="240336406#2" to="146177403#5"/>
    <trip id="veh172" type="veh_passenger" depart="355.98" departLane="best" from="-44963239#1" to="-1013484958"/>
    <trip id="veh173" type="veh_passenger" depart="358.05" departLane="best" from="146177319#0" to="-300531945#3"/>
    <trip id="veh174" type="veh_passenger" depart="360.12" departLane="best" from="-262504081#0" to="44963182#0"/>
    <trip id="veh175" type="veh_passenger" depart="362.19" departLane="best" from="147686885#4" to="-262030990"/>
    <trip id="veh176" type="veh_passenger" depart="364.26" departLane="best" from="-262504078#0" to="-890733329#0"/>
    <trip id="veh177" type="veh_passenger" depart="366.33" departLane="best" from="-890733317#1" to="-240618504#1"/>
    <trip id="veh178" type="veh_passenger" depart="368.40" departLane="best" from="-145531420#3" to="-890733335#1"/>
    <trip id="veh179" type="veh_passenger" depart="370.47" departLane="best" from="890733346#0" to="146185311#6"/>
    <trip id="veh180" type="veh_passenger" depart="372.54" departLane="best" from="-262415248#0" to="1013484974#2"/>
    <trip id="veh182" type="veh_passenger" depart="376.68" departLane="best" from="-890733352#1" to="-146185507#7"/>
    <trip id="veh183" type="veh_passenger" depart="378.75" departLane="best" from="1013482225#0" to="890733311#5"/>
    <trip id="veh184" type="veh_passenger" depart="380.82" departLane="best" from="262415258#1" to="-146176708#4"/>
    <trip id="veh185" type="veh_passenger" depart="382.89" departLane="best" from="145889835#8" to="-300531947#4"/>
    <trip id="veh186" type="veh_passenger" depart="384.96" departLane="best" from="300531944#0" to="240336413#1"/>
    <trip id="veh187" type="veh_passenger" depart="387.03" departLane="best" from="146185311#1" to="-146185739#3"/>
    <trip id="veh188" type="veh_passenger" depart="389.10" departLane="best" from="-146185311#5" to="-1013482241#1"/>
    <trip id="veh189" type="veh_passenger" depart="391.17" departLane="best" from="-165014040#0" to="1013482226#1"/>
    <trip id="veh190" type="veh_passenger" depart="393.24" departLane="best" from="44963182#2" to="-1013484965#0"/>
    <trip id="veh191" type="veh_passenger" depart="395.31" departLane="best" from="-146185311#1" to="146185508#5"/>
    <trip id="veh192" type="veh_passenger" depart="397.38" departLane="best" from="1013482242#1" to="-147934440"/>
    <trip id="veh193" type="veh_passenger" depart="399.45" departLane="best" from="146177316#3" to="-1013482224#0"/>
    <trip id="veh194" type="veh_passenger" depart="401.52" departLane="best" from="240336413#1" to="240618502#0"/>
    <trip id="veh196" type="veh_passenger" depart="405.66" departLane="best" from="-146176834#7" to="890734834#1"/>
    <trip id="veh197" type="veh_passenger" depart="407.73" departLane="best" from="1013482267#1" to="-1013482265#1"/>
    <trip id="veh198" type="veh_passenger" depart="409.80" departLane="best" from="-186555986#1" to="44963182#0"/>
    <trip id="veh199" type="veh_passenger" depart="411.87" departLane="best" from="-890919781#1" to="262504078#1"/>
    <trip id="veh200" type="veh_passenger" depart="413.94" departLane="best" from="146177403#0" to="890919782#2"/>
    <trip id="veh201" type="veh_passenger" depart="416.00" departLane="best" from="145531420#4" to="890734827#1"/>
    <trip id="veh202" type="veh_passenger" depart="418.07" departLane="best" from="890693868#0" to="145533698#5"/>
    <trip id="veh203" type="veh_passenger" depart="420.14" departLane="best" from="147686885#3" to="1013482250#1"/>
    <trip id="veh204" type="veh_passenger" depart="422.21" departLane="best" from="345727363" to="1013484974#2"/>
    <trip id="veh205" type="veh_passenger" depart="424.28" departLane="best" from="890693873#2" to="240336408#2"/>
    <trip id="veh206" type="veh_passenger" depart="426.35" departLane="best" from="1013482226#0" to="-186670934#2"/>
    <trip id="veh207" type="veh_passenger" depart="428.42" departLane="best" from="-186555982#3" to="146175335#1"/>
    <trip id="veh208" type="veh_passenger" depart="430.49" departLane="best" from="240618498#3" to="1013482271"/>
    <trip id="veh209" type="veh_passenger" depart="432.56" departLane="best" from="145535309#9" to="-240336414"/>
    <trip id="veh210" type="veh_passenger" depart="434.63" departLane="best" from="-1013484970#1" to="-240336656#2"/>
    <trip id="veh211" type="veh_passenger" depart="436.70" departLane="best" from="-240336411#6" to="-263263999#2"/>
    <trip id="veh212" type="veh_passenger" depart="438.77" departLane="best" from="1013484965#2" to="-145533698#13"/>
    <trip id="veh213" type="veh_passenger" depart="440.84" departLane="best" from="147000072#4" to="-1013484952"/>
    <trip id="veh214" type="veh_passenger" depart="442.91" departLane="best" from="-890733328#4" to="1013484969#0"/>
    <trip id="veh215" type="veh_passenger" depart="444.98" departLane="best" from="-890733333#3" to="-146185386#6"/>
    <trip id="veh216" type="veh_passenger" depart="447.05" departLane="best" from="-890733335#1" to="890733313#0"/>
    <trip id="veh217" type="veh_passenger" depart="449.12" departLane="best" from="44963235#5" to="240618498#3"/>
    <trip id="veh218" type="veh_passenger" depart="451.19" departLane="best" from="-890691656#0" to="-1013482224#0"/>
    <trip id="veh219" type="veh_passenger" depart="453.26" departLane="best" from="-380713427#8" to="240336418#0"/>
    <trip id="veh220" type="veh_passenger" depart="455.33" departLane="best" from="44963235#2" to="890734828#3"/>
    <trip id="veh221" type="veh_passenger" depart="457.40" departLane="best" from="-890733334#5" to="240336411#3"/>
    <trip id="veh222" type="veh_passenger" depart="459.47" departLane="best" from="1013484973#1" to="145533698#10"/>
    <trip id="veh223" type="veh_passenger" depart="461.54" departLane="best" from="-890733347#0" to="-1013482242#3"/>
    <trip id="veh224" type="veh_passenger" depart="463.61" departLane="best" from="-300531947#5" to="146185311#7"/>
    <trip id="veh225" type="veh_passenger" depart="465.68" departLane="best" from="-890733319#0" to="-146175711#0"/>
    <trip id="veh226" type="veh_passenger" depart="467.75" departLane="best" from="1005731031" to="-145531420#3"/>
    <trip id="veh227" type="veh_passenger" depart="469.82" departLane="best" from="145535309#5" to="-1013482241#5"/>
    <trip id="veh228" type="veh_passenger" depart="471.89" departLane="best" from="-890733311#1" to="1046461390"/>
    <trip id="veh229" type="veh_passenger" depart="473.96" departLane="best" from="-1013482242#0" to="146175711#0"/>
    <trip id="veh230" type="veh_passenger" depart="476.03" departLane="best" from="-145533698#10" to="-890919788#0"/>
    <trip id="veh231" type="veh_passenger" depart="478.10" departLane="best" from="-1013482266" to="-890687268#3"/>
    <trip id="veh232" type="veh_passenger" depart="480.16" departLane="best" from="-146185507#16" to="-300531944#0"/>
    <trip id="veh233" type="veh_passenger" depart="482.23" departLane="best" from="240336655" to="-890687268#3"/>
    <trip id="veh234" type="veh_passenger" depart="484.30" departLane="best" from="240336414" to="345727365#0"/>
    <trip id="veh235" type="veh_passenger" depart="486.37" departLane="best" from="-186555990#2" to="-1013484975"/>
    <trip id="veh236" type="veh_passenger" depart="488.44" departLane="best" from="-1013482235" to="1013484965#0"/>
    <trip id="veh237" type="veh_passenger" depart="490.51" departLane="best" from="890922318#1" to="-380713427#4"/>
    <trip id="veh238" type="veh_passenger" depart="492.58" departLane="best" from="146176834#2" to="241116028#11"/>
    <trip id="veh239" type="veh_passenger" depart="494.65" departLane="best" from="146176834#3" to="240336418#2"/>
    <trip id="veh240" type="veh_passenger" depart="496.72" departLane="best" from="890733354" to="-146185311#5"/>
    <trip id="veh241" type="veh_passenger" depart="498.79" departLane="best" from="-1013482236#1" to="-145889835#3"/>
    <trip id="veh242" type="veh_passenger" depart="500.86" departLane="best" from="-145531420#2" to="146177403#3"/>
    <trip id="veh243" type="veh_passenger" depart="502.93" departLane="best" from="1046461389" to="-146185508#4"/>
    <trip id="veh244" type="veh_passenger" depart="505.00" departLane="best" from="146185570#1" to="240618498#5"/>
    <trip id="veh245" type="veh_passenger" depart="507.07" departLane="best" from="-146176708#1" to="145533698#15"/>
    <trip id="veh246" type="veh_passenger" depart="509.14" departLane="best" from="240336411#4" to="-1190585536"/>
    <trip id="veh247" type="veh_passenger" depart="511.21" departLane="best" from="300531944#1" to="890919775#1"/>
    <trip id="veh249" type="veh_passenger" depart="515.35" departLane="best" from="-262504080#0" to="146185311#6"/>
    <trip id="veh250" type="veh_passenger" depart="517.42" departLane="best" from="890734834#1" to="-890733311#7"/>
    <trip id="veh251" type="veh_passenger" depart="519.49" departLane="best" from="147001918#2" to="-1013484969#0"/>
    <trip id="veh252" type="veh_passenger" depart="521.56" departLane="best" from="146185507#4" to="145535309#9"/>
    <trip id="veh253" type="veh_passenger" depart="523.63" departLane="best" from="-1119823428" to="240618504#1"/>
    <trip id="veh254" type="veh_passenger" depart="525.70" departLane="best" from="44963182#2" to="145532452#1"/>
    <trip id="veh255" type="veh_passenger" depart="527.77" departLane="best" from="-145529440#3" to="890919781#2"/>
    <trip id="veh256" type="veh_passenger" depart="529.84" departLane="best" from="241116028#12" to="-380713427#10"/>
    <trip id="veh257" type="veh_passenger" depart="531.91" departLane="best" from="-890733340#3" to="-44963240#2"/>
    <trip id="veh258" type="veh_passenger" depart="533.98" departLane="best" from="1013482252" to="-345727367#0"/>
    <trip id="veh259" type="veh_passenger" depart="536.05" departLane="best" from="44963182#1" to="300531946#0"/>